220
V -18.6691461318 -127.4697863344 -127.3869428191
I -61.5710658615 -130.1783001681 -110.3147076706
V -17.2008853042 -131.6899027379 -103.1234333868
I -4.2202831846 -147.200709132 -98.7362024453
V -21.5299860331 -127.3443759768 -98.7266462597
I -2.8626675784 -148.8029554554 -82.97328841
I -74.4320113436 -140.3766435931 -68.5935940506
I -115.9463138123 -136.0268507583 -32.854139429
I -100.1977064185 -128.8735255465 -11.4852286537
I -27.1496442905 -73.0470097478 -136.0198280252
I -1.4665863611 -98.8099230391 -124.5813290249
I -4.2023076493 -95.8141761283 -124.5928802526
I -2.7495020422 -94.468149226 -123.0489870621
I -58.7849969199 -84.4361149664 -118.849996917
I -41.4786358719 -115.927566256 -115.9640382484
V -9.976185293 -110.1829300335 -116.0484550844
V -13.0171623987 -104.5651401678 -116.0248739715
I -40.0248689587 -114.6201831725 -114.5199525841
V -8.5124210045 -108.7531716115 -114.4621186455
V -0.0679582822 -105.9050443479 -114.5592361073
V -20.1502392942 -108.8432212612 -111.6770436243
V -7.2247835504 -107.3754786773 -110.2900690607
V -1.3144339673 -107.4647462955 -110.2568301761
V -2.9324454954 -103.0906222191 -111.6076200138
V -27.2657964874 -101.5409410622 -110.2399081936
V -5.6916605871 -97.3443868648 -111.6523435334
I -54.3875942446 -117.2911753477 -108.9198713998
V -8.568768572 -111.6714733345 -108.8702187988
V -7.1080643548 -110.0362624123 -107.347026176
V -8.6389953747 -111.5455382595 -105.9897767037
V -7.2396824899 -107.4261328795 -107.4355705933
V -8.6410381409 -108.8376902676 -105.9996850151
V -5.7376600228 -108.8233913404 -105.9814770339
V -11.4221722843 -103.0492184807 -108.7364811276
V -8.6123502093 -105.9620521742 -105.9331056477
V -5.7143629196 -105.7976002481 -106.0283721903
V -17.2311037946 -97.2283499665 -105.9463251713
V -14.4462485063 -97.3639322355 -105.7995746205
V -7.1659550014 -98.7261626315 -107.4489153219
V -21.5487552105 -95.9827673815 -107.3587501932
V -15.7333150654 -95.9993194826 -107.3176981407
V -12.9551971788 -95.9028051753 -107.3179881107
V -14.4191703876 -94.436528524 -105.9389953746
V -58.6285475802 -93.1759795717 -107.3509099932
V -19.9787227638 -91.6384433984 -108.8650416724
I -2.9216597941 -77.3254627755 -108.8492234969
I -1.4794518221 -75.9250391931 -107.360946399
V -22.7992532041 -117.3866722911 -102.9317296832
V -7.1935061619 -115.9066977003 -104.4871841714
V -22.9026389429 -111.6628783631 -103.124135016
V -20.1737783464 -111.5578599011 -103.0659508461
V -12.8586880992 -107.3730755471 -104.4886278049
V -12.9515879023 -101.4770479473 -104.5167393102
V -34.3577752969 -97.3542586058 -103.0587950673
V -17.3110721685 -97.3403685663 -103.0140780896
V -15.8072178907 -95.9211833296 -104.403659279
V -12.8217872245 -95.9161802016 -104.5309922376
V -4.2470392895 -95.9109378314 -104.4507213229
V -4.3959986246 -93.0213515666 -104.5483945585
V -22.9651988841 -111.6731556845 -100.1750588431
V -20.0728076509 -105.8025075321 -100.1518618563
V -8.6729411286 -100.3077219907 -100.1523891169
V -34.4027313195 -102.9925346359 -97.3046467232
V -14.3155198829 -97.2289392265 -97.3849635456
V -52.8785694528 -87.2580001081 -98.7309998755
V -20.0498769056 -117.3438905709 -94.459340817
V -20.1075649481 -111.560810998 -94.5324892678
V -20.0821388474 -97.3557612923 -94.3727767871
V -15.7276727872 -98.7015407343 -96.0230126305
V -15.7349084815 -95.8456130276 -95.8503680272
V -58.6963899161 -93.0973314275 -95.8323700386
V -27.2244223367 -92.982725617 -95.7946328596
V -52.9572617125 -90.1043323526 -93.0604501196
I -8.6944651758 -83.0529972376 -94.459231326
V -20.0278134071 -103.1073881287 -91.4925549772
V -53.0300153586 -81.5790247789 -90.1192145886
I -21.4769215026 -75.8027986276 -87.4395735734
I -25.6599761467 -62.754408407 -88.8496119735
I -48.68030827 -117.1634665857 -85.9274649866
I -41.6054365124 -101.587698003 -84.4124414881
I -40.0947981949 -100.1800275604 -85.8907041956
I -41.6610993085 -98.7491230533 -84.5155877172
V -21.4371191063 -92.9800914878 -84.5367674168
I -20.1066870728 -74.4505262749 -85.8641062473
I -41.5565875629 -104.4141893574 -81.6186259038
I -42.9213229916 -103.0596721447 -80.1396295483
I -38.6843660573 -104.4553136722 -81.5591438518
I -40.1369451878 -102.9178097415 -82.9124004248
I -41.6326591419 -101.6670650999 -81.6436677044
I -43.1973862204 -100.1392328355 -83.112754472
I -63.1011829913 -105.9403185827 -71.6088701243
I -17.2378309203 -105.8568513999 -71.5506613282
I -61.6654748466 -107.423027969 -70.144922737
I -61.5315328905 -107.1826616549 -67.3111710678
I -60.1522696077 -108.7796881463 -68.7530854035
I -58.7210879348 -107.383528351 -67.3410610499
I -57.2029571699 -108.7546614192 -68.6928282817
I -65.9259816966 -103.1502305217 -68.823588825
I -64.4718141794 -104.6060604874 -70.1640080115
I -62.9914304587 -105.9055163111 -68.7618398819
I -63.0434156238 -103.0466239791 -68.8619052708
I -63.0912510889 -100.2925325198 -68.6203722034
I -61.5847027287 -107.2671486815 -64.4987387655
I -63.1419427779 -105.9731887215 -65.9723235645
I -62.9753995995 -103.2060527969 -65.898317491
I -61.5736248197 -104.5005866153 -64.3758892345
I -58.6905062968 -104.5354904945 -64.3949164313
I -61.5563650563 -101.5871344096 -64.3619262896
V -54.4421072948 -91.5965889491 -65.8398464765
I -74.4975125195 -82.9839310796 -65.8585161839
I -81.6309036146 -104.4779556459 -58.7695175679
V -91.5010570285 -97.2354350123 -60.0717756918
I -78.6487841303 -104.5266746806 -55.8391737982
V -97.2724418817 -100.1846551193 -57.2824733189
V -94.3797617804 -100.2308987862 -57.2381995011
I -81.6801213903 -101.6307275435 -55.8231449329
V -88.7387304448 -97.3215110527 -54.445849088
I -77.4137140317 -74.3439189913 -54.338047695
I -58.8025769498 -115.9920981225 -53.1183878865
V -80.1760144651 -111.6799387049 -51.53746447
V -85.884012805 -105.9696957009 -51.5082944582
V -91.6489051255 -100.2060724875 -51.4816316593
V -87.3653566668 -101.6004313789 -53.0032463349
V -101.5876832607 -95.8381064589 -52.9424704921
I -78.6962198179 -73.0692314597 -52.8003496456
I -80.2305958951 -74.4555820306 -51.4724241158
I -81.5834721392 -70.1386577153 -52.9510578396
V -87.2736538515 -104.4470295639 -50.0487622291
V -87.5009923865 -101.7096952868 -49.9550850046
V -84.4709279013 -101.6580391225 -50.0386649464
V -87.3831001508 -98.7518686945 -50.0120617312
I -81.4715407952 -70.1668278422 -49.9991042906
I -78.7281661 -70.1589773906 -50.1318747807
I -80.1486114802 -71.5965774506 -48.6231309915
V -97.4495389248 -105.9277137591 -45.684699324
V -88.8716455452 -100.153969243 -45.6979438255
V -84.533379884 -101.6613427752 -47.2357750549
V -81.7084873754 -101.6582052689 -47.2990916675
V -94.5609280751 -97.3945585875 -45.8927797126
V -96.0111327334 -93.0033903348 -47.2779232083
V -81.5632433352 -95.9274036985 -41.5118724776
V -104.5446310481 -98.8116617725 -41.4460154369
V -108.8216835176 -94.4637452634 -40.0226322759
V -98.7507169772 -92.9885273906 -38.6212381579
V -77.2908715283 -91.6397317138 -40.085611352
V -85.9476977139 -108.7001834443 -37.1045928261
V -57.2022513218 -100.2765189136 -37.3431347784
V -106.004551711 -97.3854008527 -37.2063815976
V -87.440160256 -107.3251055616 -32.8628965375
I -91.6955823146 -108.7890203732 -22.8558756578
I -87.3717207315 -104.6019264926 -24.3974291909
I -87.3752991471 -107.4084112727 -21.5311422423
I -90.2089368139 -104.330408422 -21.5274542009
I -88.8131587254 -103.074084453 -20.1195366322
I -87.3371917808 -104.494102657 -21.5108316324
I -86.0733797002 -105.8933094677 -20.0478198217
I -91.7369866756 -100.1479890629 -20.0423012734
I -87.4325431783 -104.5493750952 -18.611192138
I -85.8793295375 -103.1973662294 -17.16876938
I -88.8771167807 -103.0594682775 -17.2754346826
I -90.2229043308 -101.6023458917 -18.6595800433
I -64.5005391693 -95.82515344 -18.6504442903
I -87.3984968434 -101.7074051593 -15.8579436938
I -104.5177641299 -93.0270454599 -10.1118535468
I -68.7263767182 -108.7654417633 -5.6419678046
I -77.3571093597 -114.5309632022 -2.89796495
V -80.2192776708 -103.2088889303 -2.8975297949
I -80.2657524139 -120.300830766 2.8618774658
V -77.2326308886 -108.869867914 2.7931024962
V -78.7486776158 -95.796364795 1.409450784
V -85.9777200678 -100.2061373812 5.6590134033
V -84.5268953142 -113.0893923539 7.0634071195
V -91.6859552814 -111.5798854924 8.5318577514
V -77.3102194073 -108.8150668549 8.699324373
I -93.0422658716 -87.2747009531 7.1349131858
V -78.694837694 -101.808151778 10.1155198332
V -77.2950060374 -91.6543632577 11.5026904871
I -77.2508570828 -117.4749937479 14.3595135479
I -77.2627087452 -100.2334151398 14.2236233858
I -78.7843716623 -98.8435058887 15.6869330782
I -88.6971833499 -83.0821960293 31.4111978966
I 27.295986937 -121.6840650716 -158.821272758
I 14.2495895466 -123.1051604359 -131.7329705549
I 12.8735630206 -124.4242188193 -130.2143006622
I 14.265643645 -123.1111581675 -128.7786978699
I 11.4223910742 -126.0130838027 -88.8398935276
I 17.0831369613 -94.3432895325 -200.3853300183
I 15.8618125767 -101.5590376424 -193.266386871
I 17.2584597865 -94.5371758866 -188.8362249912
I 40.0346063872 -68.6826755323 -188.8899207657
I 20.0650966476 -71.5615353154 -186.0228550814
I 37.110947955 -71.6051008044 -188.9470242337
I 37.2617408626 -68.8132288021 -186.0368345211
V 14.2889409054 -97.5465797311 -177.3958800161
V 17.1352862136 -97.4026207671 -177.4730181222
V 27.2062300685 -75.7902418385 -178.9919488487
V 32.8754601446 -75.8670881609 -176.2444546225
V 34.2886549133 -71.621314027 -177.5181935634
I 11.3817448234 -60.0608244586 -171.7141807589
V 14.2472607139 -105.8037906734 -168.8744549929
I 8.4292680751 -71.6014983398 -168.8741002515
V 11.3749061359 -103.1674132481 -165.9176765458
I 5.7391441888 -103.1471444886 -151.764237712
I 7.0861848953 -104.4167663016 -150.2926841113
V 4.3196555664 -92.9768368001 -147.3895773729
I 11.4694225146 -120.1843967436 -128.7300642226
I 14.3444818611 -120.3371312426 -128.7226149615
I 15.7891286645 -121.636189768 -130.1811737164
I 11.3555948394 -120.2764010414 -125.8934141161
I 12.8755606683 -118.7477211502 -127.2362907235
I 11.4944906345 -117.3998990896 -125.8951953621
I 10.0236518244 -118.8522669299 -124.435343564
I 8.609976249 -117.3251653972 -123.0863054071
I 10.0733719577 -115.9141576618 -124.5280441002
V 7.112638351 -110.3167958559 -121.7027471953
V 1.3980010592 -113.0242697188 -110.2094362073
V 5.7078538384 -97.3283476175 -111.6674371163
I 14.3561361649 -83.0855118844 -111.5120677684
V 2.8800948332 -120.2753509922 -88.8827141982
I 18.5943445748 -118.7040118746 -81.5625974964
